Version 4
SHEET 1 880 680
WIRE 160 144 128 144
WIRE 288 144 240 144
WIRE 48 176 48 144
WIRE 288 240 288 208
WIRE 48 272 48 256
FLAG 288 240 0
FLAG 48 272 0
SYMBOL res 256 128 R90
WINDOW 0 0 56 VBottom 2
WINDOW 3 32 56 VTop 2
SYMATTR InstName R1
SYMATTR Value 1k
SYMBOL cap 272 144 R0
SYMATTR InstName C1
SYMATTR Value 220n
SYMBOL ind 32 160 R270
WINDOW 0 32 56 VTop 2
WINDOW 3 5 56 VBottom 2
SYMATTR InstName L1
SYMATTR Value 1m
SYMBOL voltage 48 160 M0
WINDOW 123 24 124 Left 2
WINDOW 39 0 0 Left 0
SYMATTR InstName V1
SYMATTR Value ""
SYMATTR Value2 AC 5
TEXT 64 24 Left 2 !.ac dec 100 1 100k
